/*------------------------------*- FOAMDict -*-------------------------------*\
| =========                 |                                                 |
| \\      /  F ield         | OpenFOAM: The Open Source CFD Toolbox           |
|  \\    /   O peration     | Version:  1.6                                   |
|   \\  /    A nd           | Web:      http://www.OpenFOAM.org               |
|    \\/     M anipulation  |                                                 |
\*---------------------------------------------------------------------------*/
FoamFile
{
    version     2.0;
    format      ascii;
    class       volScalarField;
    location    "0";
    object      bprog;
}
// * * * * * * * * * * * * * * * * * * * * * * * * * * * * * * * * * * * * * //

dimensions      [0 0 0 0 0 0 0];

internalField   uniform 0;

boundaryField
{
    outlet
    {
        type            zeroGradient;
    }
    sides
    {
        type            zeroGradient;
    }
    base
    {
        type            zeroGradient;
    }
    inlet
    {
        type            zeroGradient;
    }
    frontBack
    {
        type            empty;
    }
}


// ****************** vim: set ft=foamdict sw=4 sts=4 et: ****************** //
