/*------------------------------*- FOAMDict -*-------------------------------*\
| =========                 |                                                 |
| \\      /  F ield         | OpenFOAM: The Open Source CFD Toolbox           |
|  \\    /   O peration     | Version:  1.7.1                                 |
|   \\  /    A nd           | Web:      www.OpenFOAM.com                      |
|    \\/     M anipulation  |                                                 |
\*---------------------------------------------------------------------------*/
FoamFile
{
    version     2.0;
    format      binary;
    class       dictionary;
    location    "constant";
    object      chemistryProperties;
}
// * * * * * * * * * * * * * * * * * * * * * * * * * * * * * * * * * * * * * //

psiChemistryModel ODEChemistryModel<gasThermoPhysics>;

chemistry       off;

chemistrySolver ode;

initialChemicalTimeStep 1e-07;

sequentialCoeffs
{
    cTauChem        0.001;
}

EulerImplicitCoeffs
{
    cTauChem        0.05;
    equilibriumRateLimiter off;
}

odeCoeffs
{
    ODESolver       SIBS;
    eps             0.05;
    scale           1;
}

// ****************** vim: set ft=foamdict sw=4 sts=4 et: ****************** //
